Version 4
SHEET 1 880 680
WIRE -1216 -576 -1296 -576
WIRE -976 -576 -976 -656
WIRE -976 -576 -1216 -576
WIRE -784 -576 -784 -656
WIRE -512 -576 -784 -576
WIRE -688 -544 -688 -656
WIRE -512 -544 -688 -544
WIRE -352 -544 -416 -544
WIRE -1216 -512 -1216 -576
WIRE -1168 -512 -1216 -512
WIRE -784 -512 -784 -576
WIRE -784 -512 -1072 -512
WIRE -592 -512 -592 -656
WIRE -512 -512 -592 -512
WIRE -784 -400 -784 -512
WIRE -512 -400 -784 -400
WIRE -880 -368 -880 -656
WIRE -512 -368 -880 -368
WIRE -352 -368 -416 -368
WIRE -1216 -336 -1296 -336
WIRE -880 -336 -880 -368
WIRE -880 -336 -1216 -336
WIRE -592 -336 -592 -512
WIRE -512 -336 -592 -336
WIRE -1216 -272 -1216 -336
WIRE -1168 -272 -1216 -272
WIRE -688 -272 -688 -544
WIRE -688 -272 -1072 -272
WIRE -976 -224 -976 -576
WIRE -512 -224 -976 -224
WIRE -688 -192 -688 -272
WIRE -512 -192 -688 -192
WIRE -352 -192 -416 -192
WIRE -592 -160 -592 -336
WIRE -512 -160 -592 -160
WIRE -592 -144 -592 -160
WIRE -592 -144 -1296 -144
WIRE -976 -32 -976 -224
WIRE -512 -32 -976 -32
WIRE -880 0 -880 -336
WIRE -512 0 -880 0
WIRE -352 0 -416 0
WIRE -592 32 -592 -144
WIRE -512 32 -592 32
WIRE -976 96 -976 -32
WIRE -880 96 -880 0
WIRE -784 96 -784 -400
WIRE -688 96 -688 -192
WIRE -592 96 -592 32
FLAG -1296 -576 S1
IOPIN -1296 -576 In
FLAG -1296 -336 S0
IOPIN -1296 -336 In
FLAG -1296 -144 E
IOPIN -1296 -144 In
FLAG -352 -544 Y0
IOPIN -352 -544 Out
FLAG -352 -368 Y1
IOPIN -352 -368 Out
FLAG -352 -192 Y2
IOPIN -352 -192 Out
FLAG -352 0 Y3
IOPIN -352 0 Out
FLAG -976 -656 S1
FLAG -880 -656 S0
FLAG -784 -656 S0_Bar
FLAG -688 -656 S1_Bar
FLAG -592 -656 E
SYMBOL AND3 -464 -544 R0
SYMATTR InstName X1
SYMBOL AND3 -464 -368 R0
SYMATTR InstName X2
SYMBOL AND3 -464 -192 R0
SYMATTR InstName X3
SYMBOL AND3 -464 0 R0
SYMATTR InstName X4
SYMBOL inverter -1136 -512 R0
SYMATTR InstName X5
SYMBOL inverter -1136 -272 R0
SYMATTR InstName X6
