Version 4
SHEET 1 880 680
WIRE -32 192 -64 192
WIRE 112 208 64 208
WIRE 224 208 208 208
WIRE -32 224 -64 224
FLAG -64 192 A
IOPIN -64 192 In
FLAG -64 224 B
IOPIN -64 224 In
FLAG 224 208 OUT
IOPIN 224 208 Out
SYMBOL NAND2 0 208 R0
WINDOW 0 0 -40 Bottom 2
SYMATTR InstName X1
SYMBOL inverter 144 208 R0
WINDOW 0 7 31 Bottom 2
SYMATTR InstName X2
