Version 4
SHEET 1 880 680
WIRE 112 144 80 144
WIRE 112 176 80 176
WIRE 272 176 224 176
WIRE 400 176 368 176
WIRE 112 208 80 208
FLAG 80 144 A
IOPIN 80 144 In
FLAG 80 176 B
IOPIN 80 176 In
FLAG 80 208 C
IOPIN 80 208 In
FLAG 400 176 OUT
IOPIN 400 176 Out
SYMBOL NAND3 160 176 R0
SYMATTR InstName X1
SYMBOL inverter 304 176 R0
SYMATTR InstName X2
