Version 4
SHEET 1 1380 1940
WIRE -64 -112 -112 -112
WIRE 16 -112 -64 -112
WIRE 48 -112 16 -112
WIRE 144 -112 48 -112
WIRE 176 -112 144 -112
WIRE -112 -80 -112 -112
WIRE 16 -80 16 -112
WIRE 144 -80 144 -112
WIRE -64 -32 -64 -112
WIRE -64 -32 -112 -32
WIRE 48 -32 48 -112
WIRE 48 -32 16 -32
WIRE 176 -32 176 -112
WIRE 176 -32 144 -32
WIRE -160 0 -192 0
WIRE -32 32 -32 0
WIRE -32 32 -240 32
WIRE 96 48 96 0
WIRE 96 48 -144 48
WIRE -112 80 -112 16
WIRE -48 80 -112 80
WIRE 16 80 16 16
WIRE 16 80 -48 80
WIRE 144 80 144 16
WIRE 144 80 16 80
WIRE 272 80 144 80
WIRE -48 96 -48 80
WIRE 32 144 -48 144
WIRE -240 176 -240 32
WIRE -240 176 -288 176
WIRE -96 176 -240 176
WIRE -48 240 -48 192
WIRE -16 288 -48 288
WIRE -192 320 -192 0
WIRE -192 320 -288 320
WIRE -96 320 -192 320
WIRE -16 336 -16 288
WIRE -16 336 -48 336
WIRE -48 400 -48 336
WIRE -32 448 -48 448
WIRE -144 480 -144 48
WIRE -144 480 -288 480
WIRE -96 480 -144 480
WIRE -32 496 -32 448
WIRE -32 496 -48 496
WIRE -48 528 -48 496
WIRE 32 528 32 144
WIRE 32 528 -48 528
WIRE 32 592 32 528
FLAG -288 320 B
IOPIN -288 320 In
FLAG -288 176 A
IOPIN -288 176 In
FLAG 32 592 0
FLAG -64 -112 VDD
FLAG 272 80 OUT
IOPIN 272 80 Out
FLAG -288 480 C
IOPIN -288 480 In
SYMBOL pmos4 -160 -80 R0
SYMATTR InstName M1
SYMATTR Value2 l=0.25u w=0.75u
SYMBOL nmos4 -96 96 R0
SYMATTR InstName M2
SYMATTR Value2 l=0.25u w=0.375u
SYMBOL pmos4 -32 -80 R0
SYMATTR InstName M3
SYMATTR Value2 l=0.25u w=0.75u
SYMBOL nmos4 -96 240 R0
SYMATTR InstName M4
SYMATTR Value2 l=0.25u w=0.375u
SYMBOL pmos4 96 -80 R0
SYMATTR InstName M5
SYMATTR Value2 l=0.25u w=0.75u
SYMBOL nmos4 -96 400 R0
SYMATTR InstName M6
SYMATTR Value2 l=0.25u w=0.375u
TEXT 360 128 Left 2 !.global VDD
